!----------------------------------------------------------------------------------
! Users should add all user specific namelist changes below in the form of 
! namelist_var = new_namelist_value 
!
! Include namelist variables for drv_flds_in ONLY if -megan and/or -drydep options
! are set in the CLM_NAMELIST_OPTS env variable.
!
! EXCEPTIONS: 
! Set use_cndv           by the compset you use and the CLM_BLDNML_OPTS -dynamic_vegetation setting
! Set use_vichydro       by the compset you use and the CLM_BLDNML_OPTS -vichydro           setting
! Set use_cn             by the compset you use and CLM_BLDNML_OPTS -bgc  setting
! Set use_crop           by the compset you use and CLM_BLDNML_OPTS -crop setting
! Set spinup_state       by the CLM_BLDNML_OPTS -bgc_spinup      setting
! Set irrigate           by the CLM_BLDNML_OPTS -irrig           setting
! Set co2_ppmv           with CCSM_CO2_PPMV                      option
! Set dtime              with L_NCPL                             option
! Set fatmlndfrc         with LND_DOMAIN_PATH/LND_DOMAIN_FILE    options
! Set finidat            with RUN_REFCASE/RUN_REFDATE/RUN_REFTOD options for hybrid or branch cases
!                        (includes $inst_string for multi-ensemble cases)
! Set glc_grid           with CISM_GRID                          option
! Set glc_smb            with GLC_SMB                            option
! Set maxpatch_glcmec    with GLC_NEC                            option
! Set glc_do_dynglacier  with GLC_TWO_WAY_COUPLING               env variable
!----------------------------------------------------------------------------------
&clm_inparm
 hist_fincl2 = 'RAIN','SNOW','TBOT','DEWMX','ELAI','ESAI','QSNOMELT','TG','SOILLIQ','SOILICE',
               'H2OCAN','H2OSFC','H2OSNO','SNOW_DEPTH','INT_SNOW','FSNO','FSNO_EFF','FH2OSFC','FRAC_ICEOLD','SWE_OLD',
               'QIRRIG_ORIG','QSNWCPLIQ','QSNWCPICE','QFLX_SNOW_GRND','QDRIP','QFLX_RAIN_GRND','TSOI','SNO_T','FWET','FDRY'
 hist_nhtfrq = 1, 1
 hist_mfilt = 1, 1
 hist_dov2xy = .true.,.false.
 paramfile = '/Users/f9y/project_acme/cesm-inputdata/lnd/clm2/paramdata/clm_params_c180524.nc'
 fsoilordercon = '/Users/f9y/project_acme/cesm-inputdata/lnd/clm2/paramdata/CNP_parameters_c180529.nc'
 fsurdat = '/Users/f9y/clm4_5_inputdata/lnd/clm2/surfdata_map/surfdata_1x1pt_US-Brw_simyr1850_forcanga_arcticgrass.nc'
 metdata_type = 'gswp3'
 metdata_bypass = '/Users/f9y/clm4_5_inputdata/atm/datm7/atm_forcing.datm7.GSWP3.0.5d.v2.c180716_NGEE-Grid/cpl_bypass_US-Brw-GRID'
 co2_file = '/Users/f9y/clm4_5_inputdata/atm/datm7/CO2/fco2_datm_rcp4.5_1765-2500_c130312.nc'
 aero_file = '/Users/f9y/clm4_5_inputdata/atm/cam/chem/trop_mozart_aero/aero/aerosoldep_rcp4.5_monthly_1849-2104_1.9x2.5_c100402.nc'
 finidat = '/Users/f9y/project_acme/scratch/ForATS_AK-BEOG_ICB1850ELMBC/run/ForATS_AK-BEOG_ICB1850ELMBC.elm.r.0601-01-01-00000.nc'
&dynamic_subgrid
 do_harvest = .false.
 do_transient_pfts = .false.
 flanduse_timeseries = ''
/
&finidat_consistency_checks
 check_finidat_fsurdat_consistency = .false.
 check_finidat_year_consistency = .false.
/

